<?xml version="1.0" encoding="UTF-8"?>

<!-- generated on 11/07/21 22:13:08 by SUMO duarouter Version 0.30.0
<?xml version="1.0" encoding="UTF-8"?>

<configuration xmlns:xsi="http://www.w3.org/2001/XMLSchema-instance" xsi:noNamespaceSchemaLocation="http://sumo.dlr.de/xsd/duarouterConfiguration.xsd">

    <input>
        <net-file value="osm.net.xml"/>
        <trip-files value="osm.passenger.trips.xml"/>
    </input>

    <output>
        <output-file value="osm.passenger.rou.xml"/>
    </output>

    <processing>
        <ignore-errors value="true"/>
    </processing>

    <time>
        <begin value="0"/>
        <end value="3600.0"/>
    </time>

    <report>
        <no-warnings value="true"/>
        <no-step-log value="true"/>
    </report>

</configuration>
-->

<routes xmlns:xsi="http://www.w3.org/2001/XMLSchema-instance" xsi:noNamespaceSchemaLocation="http://sumo.dlr.de/xsd/routes_file.xsd">
    <vType id="passenger" vClass="passenger"/>
    <vehicle id="veh0" type="passenger" depart="0.00" departLane="best">
        <route edges="454467320#0 454467320#1 454467320#2 454467320#3 102826320#1 102826320#2 454467317 102826326#0 524481549#0 524481549#1 991044313 -103020609#2 -103020609#1 -103020609#0 524504190 524504188 524504187 524504184 245455797 103020485#0-AddedOnRampEdge 103020485#0 103020485#1 103020485#2 103020498#0 103020498#1 103020498#3 -103020524#1"/>
    </vehicle>
    <vehicle id="veh1" type="passenger" depart="2.62" departLane="best">
        <route edges="103020544#1 -103020544#1 -103020544#0 103020615 103020599 152073844#5 152073844#6 152073844#7 103020402#0 103020402#1 103020402#2 103020402#3 103020402#5 103020402#6 103020378#0 103020378#1 103020378#2 103020378#3 103020378#4 254005602#0 524504194 103020609#0 103020609#1 103020609#2 -991044313 -524481549#2 -524481549#0 454467319#1 689501658 454467320#0 454467320#1 454467320#2 454467320#3 454467320#6 454467320#9 454467320#10 102826314 102826319#0"/>
    </vehicle>
    <vehicle id="veh2" type="passenger" depart="5.23" departLane="best">
        <route edges="504109343 395010751#0 395010751#2 249536532#0 249536532#1 435674059 28071224#0 28071224#1 484964215#0 484964215#1 484964215#2 253656478#1 863479758#0 102674690#0 102674690#1 102674690#2 454467319#1 689501658 454467320#0 454467320#1 454467320#2"/>
    </vehicle>
    <vehicle id="veh3" type="passenger" depart="7.85" departLane="best">
        <route edges="85320710 435674059 28071224#0 28071224#1 484964215#0 484964215#1 484964215#2 102674724#0 102674724#4 102674724#5 102674724#6 991044313 -103020609#2 -103020609#1 -103020609#0 524504190 524504188 524504187 254006413#0 254006413#1 254006413#2 152073831#0 152073831#1 152073833 152073855 152073857#2 759774588#0 -759774588#0"/>
    </vehicle>
    <vehicle id="veh4" type="passenger" depart="10.46" departLane="best">
        <route edges="102833835#4 102833835#5 102833835#9 124697423#5 124697423#6 124697423#8 124697423#9 124697423#10 524481549#0 524481549#1 991044313 -103020609#2 -103020609#1 -103020609#0 524504190 524504188 524504187 254006413#0 254006413#1 254006413#2 152073831#0 152073831#1 152073833 152073855 152073857#2 152073858"/>
    </vehicle>
    <vehicle id="veh5" type="passenger" depart="13.08" departLane="best">
        <route edges="-103020544#0 103020615 103020599 152073844#5 152073844#6 152073844#7 103020552 759780801#0 -759780801#0 245451408#0 103020380#0 103020557 524491335 245456506#0 245456506#1 778014091 441121938 492848901 636334787#0 246476284#0 246476284#1 246476284#2 709674347 709674296 709674297 152073839#0 636334245#0 857204679 100220088#0 152073849#0 152073803 102821025"/>
    </vehicle>
    <vehicle id="veh7" type="passenger" depart="18.31" departLane="best">
        <route edges="102833835#9 124534184#0 124534184#1 124697422#0 124697422#1 124697422#2 152073844#1 152073844#2 152073844#5 152073844#6 152073844#7 103020552 759780801#0 759780801#1 45424066#0 45424066#1 103020365#0 103020365#1 103020532 103020575#0 103020621 494502147#1 494502147#2 245452718 888170980 33613802#0 33613802#1"/>
    </vehicle>
    <vehicle id="veh8" type="passenger" depart="20.93" departLane="best">
        <route edges="636334245#0 857204679 709674331#0 709674331#2 709674331#3 709674331#3-AddedOffRampEdge 85485977 85485980#0 85485980#1 102821071#0 102826314 102826319#0 454467318#1 454467316#0 102826320#1 102826320#2 454467317 102826326#0 524481549#0 524481549#1 991044313 56740686#0 56740686#1 103020522 -103020358"/>
    </vehicle>
    <vehicle id="veh9" type="passenger" depart="23.54" departLane="best">
        <route edges="625487639 808444697 808444698#2 564217667 637230613 808444694 254562434#0-AddedOnRampEdge 254562434#0 102674720#0 102674720#1 255229939#0 255229939#1 255229939#3 102674725#1 102674725#2 102674725#3 102674725#5 102674725#6 102674690#0 102674690#1 102674690#2 524481549#0 524481549#1 991044313 -103020609#2 -103020609#1 -103020609#0 524504190 524504188 524504187 254006413#0 254006413#1 254006413#2 152073831#0 152073831#1 85651092 254006673#0 244383847 98965987 45740773"/>
    </vehicle>
    <vehicle id="veh10" type="passenger" depart="26.16" departLane="best">
        <route edges="124697422#5 709674368 443163012#2 250489472 469977997 246476284#0 246476284#1 246476284#2 709674347 709674296 709674297 152073839#0 636334245#0 857204679 709674331#0 709674331#2 709674331#3 709674331#3-AddedOffRampEdge 85485977 85485980#0 85485980#1 102821071#0 102826316#0 102826316#1 102826316#1-AddedOffRampEdge 102826316#2 106436307 106436297#0 106436297#1 106436297#2 102674700#0 102674700#1 102674700#2 102674700#3"/>
    </vehicle>
    <vehicle id="veh11" type="passenger" depart="28.77" departLane="best">
        <route edges="85485980#0 85485980#1 102821071#0 102826314 102826319#0 454467318#1 454467316#0 102826320#1 102826320#2 454467317 102826326#0 524481549#0 524481549#1 991044313 -103020609#2 -103020609#1 -103020609#0 524504190 524504188 524504187 254006413#0 254006413#1 254006413#2 103020647 494468847#0 494468847#1 494468847#2 441937729#0 441937729#1 441937729#2 105025220 435674066#0 85320682#0 105307484#0"/>
    </vehicle>
    <vehicle id="veh12" type="passenger" depart="31.39" departLane="best">
        <route edges="-85320790 85320815#1 105307484#0 33619988 442610589 105025236 494503496#0 494503496#1 441937725 442610586 105025286 85320743 442610587 33613703#0 33613703#1 693057976 245455668 210780948#0 103020485#0-AddedOnRampEdge 103020485#0 103020378#0 -922509614#1"/>
    </vehicle>
    <vehicle id="veh13" type="passenger" depart="34.00" departLane="best">
        <route edges="759774588#1 -759774588#1 -759774588#0 -152073857#3 -152073857#1 -152073857#0 -436427387#1 -436427387#0 245455668 103020634#0 210899457#0 210899459 254006413#0 254006413#1 254006413#2 103020647 494468847#0 494468847#1 494468847#2 441937729#0 441937729#1 441937729#2 105025220 435674066#0 33620021#0 33620021#1"/>
    </vehicle>
    <vehicle id="veh14" type="passenger" depart="36.62" departLane="best">
        <route edges="636302492#0 636302492#1 592541626 279589291#0 279589291#1 279589291#2 279589291#3 106436301 524510342 244581287 40744449#0 102826314 102826319#0 454467318#1 454467316#0 102826320#1 102826320#2 454467317 102826326#0 524481549#0 524481549#1 991044313 -103020609#2 -103020609#1 -103020609#0 524504190 524504188 524504187 524504184 245455797 103020485#0-AddedOnRampEdge 103020485#0 103020485#1 103020485#2 103020485#3 103020485#4 759780801#0 759780801#1 45424066#0 45424066#1 103020365#0 103020365#1 103020532 103020575#0 103020621 494502147#1"/>
    </vehicle>
    <vehicle id="veh15" type="passenger" depart="39.24" departLane="best">
        <route edges="270461604 279589291#0 279589291#1 494472972#0 494472972#1 106436297#2 102674720#0 102674720#1 255229939#0 255229939#1 255229939#3 102674725#1 102674725#2 102674725#3 102674725#5 102674725#6 102674708#1 863479766 863479757#0 863479756 863479756-AddedOffRampEdge 863479761#0 863479761#2"/>
    </vehicle>
    <vehicle id="veh16" type="passenger" depart="41.85" departLane="best">
        <route edges="709674358#0 709674358#1 709674359#0 709674359#2 111783432 441121937 102821102#0 102821102#1 102821102#2 102821102#3 100220095 103020421#0-AddedOnRampEdge 103020421#0 103020402#0 103020402#1 103020402#2 103020402#3 103020402#5 103020402#6 103020378#0 103020378#1 103020378#2 103020378#3 103020378#4 524504186#0 210899459 254006413#0 254006413#1 254006413#2 103020647 494468847#0 494468847#1 494468847#2 441937729#0 441937729#1 441937729#2 105025220 435674066#0 33620021#0 151396624 494710210 151396603 733820758 85404061#0 85404061#1 85404061#2 33620413#2 33620413#3 435674076#0 435674076#1 33620413#0 85320763 884272388-AddedOnRampEdge 884272388 884272388-AddedOffRampEdge 33680135"/>
    </vehicle>
    <vehicle id="veh17" type="passenger" depart="44.47" departLane="best">
        <route edges="-60682077#2 60682077#2 103020640#2 56752300#0 56752300#1 -56740686#1 -56740686#0 -991044313 -524481549#2 -524481549#0 102833835#1 102833835#2 102833835#3 102833835#4"/>
    </vehicle>
    <vehicle id="veh18" type="passenger" depart="47.08" departLane="best">
        <route edges="-922509614#0 922509614#0 922509614#1 103020378#1 103020378#2 103020378#3 103020378#4 524504186#0 210899459 254006413#0 494468279#0 524504184 245455797 103020485#0-AddedOnRampEdge 103020485#0 103020485#1 103020485#2 103020498#0 103020498#1 103020498#3"/>
    </vehicle>
    <vehicle id="veh19" type="passenger" depart="49.70" departLane="best">
        <route edges="454467316#0 102826320#1 102826320#2 454467317 102826326#0 102833835#1 102833835#2 102833835#3 102833835#4 102833835#5 102833835#9 124534184#0 124534184#1 124697422#0 124697422#1 124697422#2 124697422#3 124697422#5"/>
    </vehicle>
    <vehicle id="veh20" type="passenger" depart="52.31" departLane="best">
        <route edges="149524456#0 149524456#1 102674720#1 255229939#0 255229939#1 255229939#3 149524453#0 149524453#2 149524453#3 454467320#9 454467320#10 547281953#0 547281953#1 547281953#1-AddedOffRampEdge 547281953#2 355377701 832141433#2 832141433#3 832141433#4 102821071#0"/>
    </vehicle>
    <vehicle id="veh21" type="passenger" depart="54.93" departLane="best">
        <route edges="103020498#1 103020498#3 -103020524#1 152073824 124697424#0 103020402#2 103020402#3 103020402#5 103020402#6 103020378#0 103020378#1 103020378#2 103020378#3 103020378#4 524504186#0 210899459 254006413#0 254006413#1 254006413#2 152073831#0 152073831#1 85651092 254006673#0 244383847 101558279#0 101558279#1 101558286 254006970 249233908#0 249233908#1 817600055#0 817600055#1 817600056#0 817600056#0-AddedOffRampEdge 817600056#1 85460136#0 85460136#1 85460136#2"/>
    </vehicle>
    <vehicle id="veh24" type="passenger" depart="62.78" departLane="best">
        <route edges="958534955 681882518 45740986 681882519 244383771 244383770#0 244383847 101558279#0 101558279#1 101558286 254006970 249233908#0 105025218 105025204 441937729#0 441937729#1 441937729#2 105025220 435674066#0 33620021#0 151396624 494710210 151396603 733820758 85404061#0 85404061#1 85404061#2 33620413#2 33620413#3 435674076#0"/>
    </vehicle>
    <vehicle id="veh25" type="passenger" depart="65.39" departLane="best">
        <route edges="33613791 103020380#0 103020557 524491335 56752302 441937724 103020421#0-AddedOnRampEdge 103020421#0 103020402#0 103020402#1 103020402#2 103020402#3 103020402#5 103020402#6 103020378#0 103020378#1 103020378#2 103020378#3 103020378#4 524504186#0 210899459 254006413#0 254006413#1 254006413#2 152073831#0 152073831#1 85651092 254006673#0 244383847 101558279#0 101558279#1 101558286 254006970 249233908#0 249233908#1 247846358 98965986 492599587 681882515 247846256 45740459"/>
    </vehicle>
    <vehicle id="veh26" type="passenger" depart="68.01" departLane="best">
        <route edges="757840166 757840166-AddedOffRampEdge 441796538#1 524491335 56752302 441937724 103020421#0-AddedOnRampEdge 103020421#0 103020402#0 103020402#1 103020402#2 103020402#3 103020402#5 103020402#6 103020378#0 103020378#1 103020378#2 103020378#3 103020378#4 524504186#0 210899459 254006413#0 254006413#1 254006413#2 152073831#0 152073831#1 85651092 254006673#0 244383847 101558279#0 101558279#1 254006793 85320779 388176756 494456726 53470399"/>
    </vehicle>
    <vehicle id="veh27" type="passenger" depart="70.62" departLane="best">
        <route edges="103020365#1 -103020365#1 -103020365#0 -103020562 -45424066#0 -759780801#1 -759780801#0 -103020552 103020402#0 103020402#1 103020402#2 103020402#3 103020402#5 103020402#6 103020378#0 103020378#1 103020378#2 103020378#3 103020378#4 254005602#0 524504189 53470408#0 53470408#1 53470401 504109343 395010751#0 395010751#2 249536532#0 249536532#1 435674059 28071224#0 28071224#1 484964215#0 484964215#1 -103020555#1"/>
    </vehicle>
    <vehicle id="veh28" type="passenger" depart="73.24" departLane="best">
        <route edges="105025286 85320743 442610587 33613703#0 33613703#1 693057976 245455668 210780948#0 103020485#0-AddedOnRampEdge 103020485#0 103020378#0 -922509614#1 103020627 103020613 103020458#1 103020458#2 103020458#3 103020458#4"/>
    </vehicle>
    <vehicle id="veh29" type="passenger" depart="75.86" departLane="best">
        <route edges="102826320#2 454467317 102826326#0 524481549#0 524481549#1 991044313 -103020609#2 -103020609#1 -103020609#0 524504190 524504188 524504187 524504184 245455797 103020485#0-AddedOnRampEdge 103020485#0 103020485#1 103020485#2 103020485#3 103020485#4 759780801#0 759780801#1 45424066#0 45424066#1 103020365#0 103020365#1 103020532 103020575#0 103020621 494502147#1 494502147#2 152073854#0 152073854#1 152073854#1-AddedOffRampEdge 759774589#0 85460166 85460154#2-AddedOnRampEdge 85460154#2"/>
    </vehicle>
    <vehicle id="veh30" type="passenger" depart="78.47" departLane="best">
        <route edges="808444702 808444725#0 808444694 254562434#0-AddedOnRampEdge 254562434#0 102674720#0 102674720#1 255229939#0 255229939#1 255229939#3 102674725#1 102674725#2 102674725#3 102674725#5 102674725#6 102674690#0 102674690#1 102674690#2 524481549#0 524481549#1 991044313 -103020609#2 -103020609#1 -103020609#0 524504190 524504188 524504187 524504184 245455797 103020485#0-AddedOnRampEdge 103020485#0 152073821#0 152073821#1 152073821#2 152073822 103020582 103020629#0 103020629#1"/>
    </vehicle>
    <vehicle id="veh31" type="passenger" depart="81.09" departLane="best">
        <route edges="45740765 247845479 45740767 249233908#0 105025218 105025204 441937729#0 441937729#1 441937729#2 442610590 442610589 105025236 494503496#0 494503496#1 441937725 442610586 105025286 85320743 442610587 33613703#0 33613703#1 693057976 245455668 103020634#0 210899457#0 210899457#1 210899458 524504194 103020609#0 103020609#1 103020609#2 -991044313 -524481549#2 -524481549#0 454467319#1 689501658 454467321 492477352#0 149555121"/>
    </vehicle>
    <vehicle id="veh32" type="passenger" depart="83.70" departLane="best">
        <route edges="85320775#0 85320775#1 151396602#0 151396602#1 151396602#1-AddedOffRampEdge 374441866 494706919 33619988 442610589 105025236 494503496#0 494503496#1 441937725 442610586 105025286 85320743 442610587 33613703#0 33613703#1 693057976 245455668 103020634#0 210899457#0 210899457#1 210899458 524504194 103020609#0 103020609#1 103020609#2 -991044313 -524481549#2 -524481549#0 454467319#1 689501658 454467320#0 454467320#1 454467320#2 454467320#3 454467320#6 454467320#9 454467320#10 547281953#0 547281953#1 547281953#1-AddedOffRampEdge 547281953#2 547281953#3 564217668#0 564217668#1 152073812#0 152073812#1 152073812#2 152073812#3 152073812#4 152073812#5 152073812#6 152073812#7"/>
    </vehicle>
    <vehicle id="veh33" type="passenger" depart="86.32" departLane="best">
        <route edges="103020492#0 103020492#1 103020621 -103020621 -103020575#1 -103020532 -103020365#1 -103020365#0 -103020562 -45424066#0 -759780801#1 -759780801#0 -103020552 103020402#0 103020402#1 103020402#2 103020402#3 103020498#0 103020498#1 103020498#3 103020395#0 103020395#1"/>
    </vehicle>
    <vehicle id="veh34" type="passenger" depart="88.93" departLane="best">
        <route edges="33620396#0 33620396#2 435674076#1 33620413#0 85320763 884272388-AddedOnRampEdge 884272388 884272388-AddedOffRampEdge 33680135 33680138#1 33680138#2 494503496#1 441937725 442610586 105025286 85320743 442610587 33613703#0 33613703#1 693057976 436427387#0 436427387#1 152073857#0 152073857#1 152073857#2 759774588#0 759774588#1 759774588#2 -103020619 -857186485 -103020450#3 103020450#3"/>
    </vehicle>
    <vehicle id="veh35" type="passenger" depart="91.55" departLane="best">
        <route edges="374441866 494706919 33619988 442610589 105025236 494503496#0 494503496#1 441937725 442610586 105025286 85320743 442610587 33613703#0 33613703#1 693057976 245455668 103020634#0 210899457#0 210899457#1 210899458 524504194 103020609#0 103020609#1 103020609#2 -991044313 -524481549#2 -524481549#0 454467319#1 689501658 454467320#0 454467320#1 454467320#2 454467320#3 454467320#6 454467320#9 454467320#10 547281953#0 547281953#1 547281953#1-AddedOffRampEdge 547281953#2 355377701 832141433#2 832141433#3 832141433#4"/>
    </vehicle>
    <vehicle id="veh37" type="passenger" depart="96.78" departLane="best">
        <route edges="-85320711 151396602#1 151396602#1-AddedOffRampEdge 374441866 494706919 33619988 442610589 105025236 494503496#0 494503496#1 441937725 442610586 105025286 85320743 442610587 33613703#0 33613703#1 693057976 245455668 103020634#0 210899457#0 210899457#1 210899458 524504194 103020609#0 103020609#1 103020609#2 -991044313 149555151 -149555134"/>
    </vehicle>
    <vehicle id="veh38" type="passenger" depart="99.40" departLane="best">
        <route edges="100220088#0 152073849#0 152073849#1 100220097#0 100220097#1 493089593#0 493089593#1 124697422#0 124697422#1 124697422#2 152073844#1 152073844#2 152073844#5 152073844#6 152073844#7 103020552 759780801#0 759780801#1 45424066#0 45424066#1 103020365#0 103020365#1 103020532 103020575#0 103020621 494502147#1 494502147#2 152073854#0 152073854#1 152073854#1-AddedOffRampEdge 759774589#0 85460166 85460154#2-AddedOnRampEdge 85460154#2 37664262#0 37664262#1 37664262#2"/>
    </vehicle>
    <vehicle id="veh39" type="passenger" depart="102.01" departLane="best">
        <route edges="60682077#0 60682077#1 60682077#2 103020640#2 56752300#0 56752300#1 -56740686#1 -56740686#0 -991044313 -524481549#2 -524481549#0 454467319#1 689501658 454467321 492477352#0 492477352#1 102674738#5 149555162#0"/>
    </vehicle>
    <vehicle id="veh40" type="passenger" depart="104.63" departLane="best">
        <route edges="-152073822 -152073821#2 -152073821#1 -152073821#0 103020378#0 103020378#1 103020378#2 103020378#3 103020378#4 254005602#0 524504194 103020609#0 103020609#1 103020609#2 -991044313 -524481549#2 -524481549#0 454467319#1 689501658 454467320#0 454467320#1 454467320#2 454467320#3 454467320#6 454467320#9 454467320#10 102826314 149524428#0"/>
    </vehicle>
    <vehicle id="veh42" type="passenger" depart="109.86" departLane="best">
        <route edges="863479766 863479757#0 102674724#0 102674724#4 102674724#5 102674724#6 991044313 -103020609#2 -103020609#1 -103020609#0 524504190 524504188 524504187 254006413#0 254006413#1 254006413#2 103020647 494468847#0 494468847#1 494468847#2 441937729#0 441937729#1 441937729#2 442610590 442610589 105025236 494503496#0 494503496#1 441937725 85320732 441937728 771547293#0 771547294"/>
    </vehicle>
    <vehicle id="veh43" type="passenger" depart="112.48" departLane="best">
        <route edges="-103020363#0 103020363#0 103020363#1 904960741#1 904960741#2 904960741#3 103020492#0 103020492#1 103020621 494502147#1 494502147#2 245452718 888170980 33613802#0 28379307#0 28379307#1 28379307#3 85404098 494452056 494452057"/>
    </vehicle>
    <vehicle id="veh44" type="passenger" depart="115.09" departLane="best">
        <route edges="45740906 674226056 822238477 757842002 757842002-AddedOffRampEdge 33620440#0 101558270 101558259 771547293#0 85320816 442610587 33613703#0 33613703#1 693057976 245455668 210780948#0 103020485#0-AddedOnRampEdge 103020485#0 103020485#1 103020485#2 103020485#3 103020485#4 245451408#0 103020380#0 103020557 524491335 245456506#0 245456506#1 778014091 441121938 492848901 636334787#0 246476284#0 246476284#1 246476284#2 709674347 709674296 709674297 120833468#0 120833468#1 246476534#0 246476534#2"/>
    </vehicle>
    <vehicle id="veh45" type="passenger" depart="117.71" departLane="best">
        <route edges="103020498#0 103020498#1 103020498#3 -103020524#1 152073824 124697424#0 103020402#2 103020402#3 103020402#5 103020402#6 103020378#0 103020378#1 103020378#2 103020378#3 103020378#4 524504186#0 210899459 254006413#0 254006413#1 254006413#2 103020647 494468847#0 494468847#1 494468847#2 441937729#0 441937729#1 441937729#2 105025220 435674066#0 33620021#0 151396624 494710210 151396603 733820758 85404061#0 85404061#1 85404061#2 33620413#2 33620413#3 435674076#0 435674076#1"/>
    </vehicle>
    <vehicle id="veh46" type="passenger" depart="120.32" departLane="best">
        <route edges="100220095 103020421#0-AddedOnRampEdge 103020421#0 103020402#0 103020402#1 103020402#2 103020402#3 103020402#5 103020402#6 103020378#0 103020378#1 103020378#2 103020378#3 103020378#4 524504186#0 210899459 254006413#0 254006413#1 254006413#2 103020647 494468847#0 494468847#1 494468847#2 441937729#0 441937729#1 441937729#2 105025220 435674066#0 33620021#0 151396624 494710210 151396605 494706915#0 494706915#1 494706915#2 151396604#0 101558256 151396668#0 151396668#1-AddedOnRampEdge"/>
    </vehicle>
    <vehicle id="veh47" type="passenger" depart="122.94" departLane="best">
        <route edges="152073829 103020395#1 152073820#0 152073820#2 124534184#0 124534184#1 124697422#0 124697422#1 124697422#2 124697422#3 124697422#5 709674368 443163012#2 250489472 469977997 246476284#0 246476284#1 246476284#2 709674347 709674296 709674297 152073839#0 636334245#0 857204679 709674331#0 709674331#2 709674331#3 709674331#3-AddedOffRampEdge 85485977 85485980#0 85485980#1"/>
    </vehicle>
    <vehicle id="veh48" type="passenger" depart="125.56" departLane="best">
        <route edges="808444702 808444725#0 808444694 254562434#0-AddedOnRampEdge 254562434#0 102674720#0 102674720#1 255229939#0 255229939#1 255229939#3 102674725#1 102674725#2 102674725#3 102674725#5 102674725#6 102674690#0 102674690#1 102674690#2 102833835#1 102833835#2 102833835#3 102833835#4 102833835#5 102833835#9 124534184#0 152073810#0 152073810#1 152073810#2 103020395#0 103020395#1 103020458#0"/>
    </vehicle>
    <vehicle id="veh49" type="passenger" depart="128.17" departLane="best">
        <route edges="245456506#0 245456506#1 778014091 441121938 469977998 469977996#0 99517944 102821031#0 102821031#1 757833658#0 757833658#1 757833657#0 757833657#2 124697423#0 124697423#1 124697423#2 124697423#5 124697423#6 124697423#8 124697423#9 124697423#10 454467319#1 689501658 454467321 492477352#0 492477352#1 102674738#5 102674738#6 102674738#7 102674725#1 102674725#2"/>
    </vehicle>
    <vehicle id="veh50" type="passenger" depart="130.79" departLane="best">
        <route edges="85320763 884272388-AddedOnRampEdge 884272388 884272388-AddedOffRampEdge 33680135 33680138#1 33680138#2 494503496#1 441937725 442610586 105025286 85320743 442610587 33613703#0 33613703#1 693057976 245455668 103020634#0 210899457#0 210899457#1 210899458 524504194 103020609#0 103020609#1 103020609#2 -991044313 -524481549#2 -524481549#0 454467319#1 689501658 454467320#0 454467320#1 454467320#2 454467320#3 454467320#6 454467320#9 454467320#10 621378914 621378914-AddedOffRampEdge 621378920#0 621378920#1 621378920#2 621378919 784464002#0"/>
    </vehicle>
    <vehicle id="veh51" type="passenger" depart="133.40" departLane="best">
        <route edges="103020629#0 103020629#1 103020629#2 -152073822 -152073821#2 -152073821#1 -152073821#0 103020378#0 103020378#1 103020378#2 103020378#3 103020378#4 524504186#0 210899459 254006413#0 254006413#1 254006413#2 103020647 494468847#0 494468847#1 494468847#2 441937729#0 441937729#1 441937729#2 105025220 435674066#0 33620021#0 435674068"/>
    </vehicle>
    <vehicle id="veh52" type="passenger" depart="136.02" departLane="best">
        <route edges="441937724 103020421#0-AddedOnRampEdge 103020421#0 103020402#0 103020402#1 103020402#2 103020402#3 103020402#5 103020402#6 103020378#0 103020378#1 103020378#2 103020378#3 103020378#4 254005602#0 524504194 103020609#0 103020609#1 103020609#2 -991044313 -524481549#2 -524481549#0 454467319#1 689501658 454467320#0 454467320#1 454467320#2 454467320#3 454467320#6 454467320#9 454467320#10 102826316#0 102826316#1 102826316#1-AddedOffRampEdge 102826316#2 106436307 106436297#0 106436297#1 106436297#2 102674700#0 102674700#1 102674700#2"/>
    </vehicle>
    <vehicle id="veh53" type="passenger" depart="138.63" departLane="best">
        <route edges="53470400#0 53470400#1 103020666#0 103020666#1 951585200 53470409 514553062 951585201 514553069#1 514553076 247845191"/>
    </vehicle>
    <vehicle id="veh54" type="passenger" depart="141.25" departLane="best">
        <route edges="547281953#0 547281953#1 547281953#1-AddedOffRampEdge 547281953#2 547281953#3 564217668#0 564217668#1 5020536 857204678#0 857204678#1 493089593#0 493089593#1 124697422#0 124697422#1 124697422#2 152073844#1 152073844#2 152073844#5 152073844#6 152073844#7 103020552 759780801#0 -759780801#0 245451408#0 103020380#0 103020557 524491335 245456506#0"/>
    </vehicle>
    <vehicle id="veh55" type="passenger" depart="143.87" departLane="best">
        <route edges="-102674724#2 102674724#0 102674724#4 102674724#5 102674724#6 991044313 -103020609#2 -103020609#1 -103020609#0 524504190 53470408#0 53470408#1 53470401 504109343 395010751#0 395010751#2 -103020563 -272254645#1 272254645#0 103020666#0 103020666#1"/>
    </vehicle>
    <vehicle id="veh56" type="passenger" depart="146.48" departLane="best">
        <route edges="-103020440 -103020544#0 103020615 103020599 152073844#5 152073844#6 152073844#7 103020402#0 103020402#1 103020402#2 103020402#3 103020402#5 103020402#6 103020378#0 103020378#1 103020378#2 103020378#3 103020378#4 524504186#0 210899459 254006413#0 254006413#1 254006413#2 103020647 494468847#0 494468847#1 494468847#2 441937729#0 441937729#1 441937729#2 105025220 435674066#0 33620021#0 151396624 494710210 151396603 733820758 85404061#0"/>
    </vehicle>
    <vehicle id="veh57" type="passenger" depart="149.10" departLane="best">
        <route edges="817600055#0 817600055#1 817600056#0 817600056#0-AddedOffRampEdge 152073853 769116977 769116978#0 85460141 88718984 -103020619 -857186485 -103020450#3 -103020621 -103020575#1 -103020532 -103020365#1 -103020365#0 -103020562 -45424066#0 -759780801#1 -759780801#0 245451408#0 103020380#0 103020557 524491335 245456506#0 245456506#1 778014091 441121938 492848901 636334787#0 246476284#0 246476284#1 246476284#2 709674347 709674296 709674297 152073839#0 636334245#0 857204679 709674331#0 709674331#2 709674331#3 709674331#3-AddedOffRampEdge"/>
    </vehicle>
    <vehicle id="veh58" type="passenger" depart="151.71" departLane="best">
        <route edges="103020654 451817426 270589685 492375598#1 494468279#0 524504184 245455797 103020485#0-AddedOnRampEdge 103020485#0 152073821#0 152073821#1 152073821#2 152073822 -152073822"/>
    </vehicle>
    <vehicle id="veh59" type="passenger" depart="154.33" departLane="best">
        <route edges="808444725#0 808444694 254562434#0-AddedOnRampEdge 254562434#0 102674720#0 102674720#1 255229939#0 255229939#1 255229939#3 102674725#1 102674725#2 102674725#3 102674725#5 102674725#6 102674690#0 102674690#1 102674690#2 524481549#0 524481549#1 991044313 -103020609#2 -103020609#1 -103020609#0 524504190 524504188 524504187 254006413#0 254006413#1 254006413#2 152073831#0 152073831#1 152073833 152073855 152073857#2 759774588#0 759774588#1 759774588#2 85460149 85460158#2-AddedOnRampEdge 85460158#2"/>
    </vehicle>
    <vehicle id="veh60" type="passenger" depart="156.94" departLane="best">
        <route edges="-759780801#1 -759780801#0 245451408#0 103020380#0 103020557 524491335 245456506#0 245456506#1 778014091 441121938 492848901 636334787#0 246476284#0 246476284#1 246476284#2 709674347 709674296 709674297 152073839#0 636334245#0 857204679 100220088#0 152073849#0 152073849#1 100220097#0 100220097#1 493089593#0 152073842#0"/>
    </vehicle>
    <vehicle id="veh61" type="passenger" depart="159.56" departLane="best">
        <route edges="-152073858 -152073857#3 -152073857#1 -152073857#0 -436427387#1 -436427387#0 245455668 103020634#0 210899457#0 210899457#1 210899458 524504194 103020609#0 -103020609#0 524504190"/>
    </vehicle>
    <vehicle id="veh63" type="passenger" depart="164.79" departLane="best">
        <route edges="152073854#1-AddedOffRampEdge 759774589#0 85460158#0 85460158#1 85460158#2-AddedOnRampEdge 85460158#2 152073832 90465814#0 90465814#1 85651090 245455668 103020634#0 210899457#0 210899457#1 210899458 524504189 53470408#0 53470408#1 53470401 504109343 395010751#0 395010751#2 249536532#0 249536532#1"/>
    </vehicle>
    <vehicle id="veh64" type="passenger" depart="167.41" departLane="best">
        <route edges="103020492#1 103020621 103020450#3 857186485 103020619 85460149 85460158#2-AddedOnRampEdge 85460158#2 152073832 90465814#0 90465814#1 85651090 245455668 103020634#0 210899457#0 210899457#1 210899458 524504194 103020609#0 103020609#1 103020609#2 -991044313 -524481549#2 -524481549#0 454467319#1 689501658 454467320#0 454467320#1 454467320#2 454467320#3 454467320#6 454467320#9 454467320#10 621378914 621378914-AddedOffRampEdge 784464005"/>
    </vehicle>
    <vehicle id="veh65" type="passenger" depart="170.02" departLane="best">